.model D_Zener D (Bv=36 type=zener Ibv=41e-3)